data_block_1
_audit_creation_date         'Wed Sep 14 13:52:05 2022'
_audit_creation_method       'generated by GDIS v0.90'


_cell_length_a             16.9910
_cell_length_b             16.9910
_cell_length_c             16.9910
_cell_angle_alpha          90.00
_cell_angle_beta           90.00
_cell_angle_gamma          90.00


_symmetry_space_group_name_H-M   ''
_symmetry_Int_Tables_number       1


loop_
_atom_site_label
_atom_site_fract_x
_atom_site_fract_y
_atom_site_fract_z
 C    0.9033    0.4882    0.1112
 C    0.8980    0.3774    0.1719
 H    0.9144    0.3319    0.2125
 C    0.9295    0.5677    0.0856
 N    0.9382    0.4470    0.1681
Zn    0.0267    0.4768    0.2384
 C    0.5325    0.1017    0.8667
 C    0.4210    0.1058    0.8071
 H    0.3757    0.0900    0.7661
 C    0.6123    0.0764    0.8918
 N    0.4919    0.0678    0.8085
Zn    0.5239    0.9799    0.7384
 C    0.1486    0.4703    0.1101
 C    0.1620    0.5741    0.1812
 H    0.1499    0.6158    0.2271
 C    0.1170    0.3956    0.0776
 H    0.0749    0.4081    0.0307
 H    0.0868    0.3626    0.1234
 H    0.1643    0.3603    0.0530
 N    0.1176    0.5076    0.1720
 C    0.5172    0.8594    0.8672
 C    0.6277    0.8539    0.8058
 H    0.6725    0.8695    0.7642
 C    0.4384    0.8864    0.8936
 H    0.4444    0.9392    0.9297
 H    0.4016    0.9012    0.8433
 H    0.4101    0.8410    0.9287
 N    0.5573    0.8929    0.8085
 C    0.9025    0.4714    0.8700
 C    0.8978    0.5807    0.8064
 H    0.9141    0.6248    0.7644
 C    0.9281    0.3924    0.8975
 N    0.9373    0.5106    0.8115
Zn    0.0254    0.4786    0.7418
 C    0.5171    0.0994    0.1105
 C    0.6243    0.1055    0.1773
 H    0.6667    0.0910    0.2218
 C    0.4394    0.0724    0.0806
 N    0.5542    0.0665    0.1714
Zn    0.5204    0.9782    0.2400
 C    0.1467    0.4845    0.8702
 C    0.1617    0.3819    0.7977
 H    0.1502    0.3407    0.7513
 C    0.1135    0.5581    0.9039
 H    0.0677    0.5441    0.9466
 H    0.0875    0.5939    0.8576
 H    0.1593    0.5913    0.9338
 N    0.1161    0.4474    0.8081
 C    0.5278    0.8581    0.1104
 C    0.4202    0.8477    0.1760
 H    0.3766    0.8609    0.2197
 C    0.6048    0.8875    0.0812
 H    0.5959    0.9244    0.0294
 H    0.6337    0.9225    0.1263
 H    0.6424    0.8386    0.0642
 N    0.4886    0.8898    0.1706
 C    0.1434    0.8562    0.4981
 C    0.2093    0.8492    0.3904
 H    0.2531    0.8639    0.3474
 C    0.1140    0.8838    0.5758
 N    0.2033    0.8896    0.4598
Zn    0.2712    0.9794    0.4909
 C    0.9027    0.8549    0.4808
 C    0.8892    0.7872    0.5868
 H    0.9013    0.7428    0.6300
 C    0.9343    0.8845    0.4048
 H    0.9905    0.9139    0.4142
 H    0.9443    0.8360    0.3642
 H    0.8931    0.9262    0.3788
 N    0.9335    0.7942    0.5200
Zn    0.0236    0.7265    0.4896
 C    0.9008    0.0993    0.4964
 C    0.8350    0.1096    0.3889
 H    0.7919    0.0958    0.3449
 C    0.9303    0.0692    0.5731
 N    0.8416    0.0665    0.4565
Zn    0.7735    0.9765    0.4868
 C    0.1411    0.1001    0.4840
 C    0.1509    0.1654    0.5918
 H    0.1369    0.2084    0.6359
 C    0.1114    0.0714    0.4069
 H    0.0553    0.0413    0.4148
 H    0.1017    0.1203    0.3667
 H    0.1534    0.0304    0.3812
 N    0.1087    0.1598    0.5235
Zn    0.0207    0.2293    0.4913
 C    0.2078    0.1091    0.5911
 H    0.2519    0.0954    0.6341
 N    0.2016    0.0678    0.5223
 C    0.1527    0.7926    0.3893
 H    0.1386    0.7502    0.3447
 H    0.0602    0.9178    0.5680
 H    0.1003    0.8340    0.6137
 H    0.1579    0.9210    0.6039
 N    0.1111    0.7969    0.4580
 C    0.8327    0.8439    0.5857
 H    0.7873    0.8570    0.6275
 N    0.8413    0.8868    0.5181
 C    0.8903    0.1675    0.3904
 H    0.9031    0.2125    0.3482
 H    0.9814    0.0314    0.5637
 H    0.9485    0.1177    0.6107
 H    0.8848    0.0349    0.6023
 N    0.9319    0.1609    0.4589
 C    0.4213    0.1619    0.8643
 H    0.3763    0.2028    0.8812
 H    0.6084    0.0412    0.9453
 H    0.6491    0.1273    0.9045
 H    0.6396    0.0409    0.8460
 N    0.4924    0.1593    0.9019
Zn    0.5265    0.2277    0.9902
 C    0.4206    0.7915    0.1190
 H    0.3773    0.7478    0.1048
 N    0.4892    0.7981    0.0775
Zn    0.5234    0.7309    0.9885
 C    0.8402    0.5813    0.8620
 H    0.7978    0.6258    0.8762
 H    0.9420    0.3942    0.9601
 H    0.8816    0.3491    0.8892
 H    0.9801    0.3740    0.8649
 N    0.8432    0.5116    0.9023
Zn    0.7730    0.4812    0.9906
 C    0.6270    0.1612    0.1198
 H    0.6726    0.2024    0.1054
 H    0.4477    0.0331    0.0306
 H    0.4045    0.1223    0.0609
 H    0.4080    0.0405    0.1263
 N    0.5587    0.1573    0.0776
 C    0.2187    0.3818    0.8539
 H    0.2651    0.3404    0.8647
 N    0.2091    0.4472    0.8999
Zn    0.2773    0.4781    0.9892
 C    0.6276    0.7977    0.8628
 H    0.6722    0.7561    0.8788
 N    0.5571    0.8010    0.9015
 C    0.8396    0.3790    0.1172
 H    0.7964    0.3354    0.1024
 H    0.9388    0.5685    0.0221
 H    0.8851    0.6119    0.0992
 H    0.9841    0.5830    0.1153
 N    0.8430    0.4496    0.0787
 C    0.2185    0.5747    0.1246
 H    0.2640    0.6170    0.1130
 N    0.2101    0.5085    0.0796
 C    0.4004    0.9876    0.6123
 C    0.3942    0.8778    0.6748
 H    0.4099    0.8329    0.7163
 C    0.4278    0.0661    0.5851
 H    0.4808    0.0597    0.5495
 H    0.4422    0.1034    0.6352
 H    0.3826    0.0940    0.5495
 N    0.4346    0.9473    0.6704
 C    0.0332    0.5980    0.3684
 C    0.9263    0.6060    0.3013
 H    0.8835    0.5916    0.2572
 C    0.1107    0.5704    0.3982
 N    0.9953    0.5652    0.3079
 C    0.6441    0.9701    0.6090
 C    0.6535    0.0794    0.6719
 H    0.6398    0.1241    0.7144
 C    0.6153    0.8916    0.5830
 H    0.5537    0.8953    0.5659
 H    0.6199    0.8489    0.6305
 H    0.6499    0.8714    0.5330
 N    0.6118    0.0107    0.6680
 C    0.0156    0.3563    0.3675
 C    0.1242    0.3453    0.3035
 H    0.1682    0.3580    0.2601
 C    0.9376    0.3858    0.3941
 H    0.9429    0.4464    0.4145
 H    0.8955    0.3852    0.3458
 H    0.9158    0.3493    0.4419
 N    0.0554    0.3870    0.3072
 C    0.4005    0.9721    0.3694
 C    0.3870    0.0772    0.3003
 H    0.3990    0.1197    0.2552
 C    0.4325    0.8967    0.4001
 H    0.4853    0.9078    0.4348
 H    0.4485    0.8579    0.3518
 H    0.3890    0.8680    0.4374
 N    0.4311    0.0103    0.3080
 C    0.0171    0.5989    0.6124
 C    0.1245    0.6097    0.6783
 H    0.1678    0.5969    0.7224
 C    0.9399    0.5689    0.5840
 N    0.0559    0.5679    0.6732
 C    0.6432    0.9843    0.3674
 C    0.6539    0.8790    0.2983
 H    0.6402    0.8363    0.2538
 C    0.6130    0.0599    0.3994
 N    0.6103    0.9461    0.3073
 C    0.0296    0.3581    0.6114
 C    0.9250    0.3478    0.6819
 H    0.8835    0.3612    0.7275
 C    0.1052    0.3873    0.5788
 N    0.9929    0.3901    0.6731
 C    0.6468    0.3571    0.9984
 C    0.7061    0.3558    0.8867
 H    0.7464    0.3735    0.8414
 C    0.6212    0.3812    0.0785
 N    0.7036    0.3932    0.9580
 C    0.4063    0.3564    0.9828
 C    0.3970    0.2925    0.0916
 H    0.4111    0.2499    0.1361
 C    0.4355    0.3837    0.9050
 H    0.4945    0.4081    0.9111
 H    0.4388    0.3349    0.8636
 H    0.3966    0.4289    0.8818
 N    0.4387    0.2970    0.0229
 C    0.4057    0.6002    0.9943
 C    0.3353    0.6113    0.8898
 H    0.2901    0.5979    0.8479
 C    0.4384    0.5698    0.0695
 N    0.3445    0.5680    0.9570
 C    0.6456    0.6035    0.9820
 C    0.6503    0.6656    0.0922
 H    0.6346    0.7076    0.1365
 C    0.6195    0.5771    0.9029
 H    0.5674    0.5399    0.9084
 H    0.6039    0.6274    0.8665
 H    0.6658    0.5432    0.8746
 N    0.6117    0.6623    0.0216
 C    0.7067    0.6088    0.0927
 H    0.7481    0.5931    0.1377
 N    0.7039    0.5696    0.0224
 C    0.6508    0.2979    0.8866
 H    0.6350    0.2570    0.8413
 H    0.5628    0.4075    0.0758
 H    0.6178    0.3304    0.1175
 H    0.6622    0.4240    0.1025
 N    0.6133    0.2986    0.9578
 C    0.3404    0.3491    0.0905
 H    0.2968    0.3638    0.1337
 N    0.3463    0.3895    0.0211
 C    0.3912    0.6686    0.8888
 H    0.4027    0.7134    0.8459
 H    0.4912    0.5351    0.0581
 H    0.4546    0.6182    0.1082
 H    0.3953    0.5324    0.0985
 N    0.4358    0.6616    0.9555
 C    0.9249    0.6625    0.3581
 H    0.8804    0.7052    0.3718
 H    0.1051    0.5509    0.4590
 H    0.1537    0.6179    0.3970
 H    0.1318    0.5218    0.3623
 N    0.9931    0.6574    0.4005
 C    0.9230    0.2913    0.6253
 H    0.8792    0.2474    0.6132
 H    0.0955    0.4147    0.5216
 H    0.1464    0.3389    0.5704
 H    0.1308    0.4305    0.6184
 N    0.9897    0.2978    0.5806
 C    0.3308    0.0771    0.3573
 H    0.2857    0.1193    0.3700
 N    0.3394    0.0100    0.4011
 C    0.1248    0.6648    0.6203
 H    0.1686    0.7076    0.6051
 H    0.9478    0.5122    0.5552
 H    0.9146    0.6102    0.5422
 H    0.8997    0.5605    0.6331
 N    0.0562    0.6581    0.5786
 C    0.7120    0.8791    0.3532
 H    0.7575    0.8368    0.3645
 H    0.5791    0.0492    0.4528
 H    0.6615    0.0990    0.4145
 H    0.5749    0.0882    0.3565
 N    0.7052    0.9463    0.3971
 C    0.1235    0.2905    0.3618
 H    0.1672    0.2479    0.3780
 N    0.0542    0.2974    0.4023
 C    0.3365    0.8786    0.6193
 H    0.2932    0.8350    0.6050
 N    0.3405    0.9486    0.5797
 C    0.7100    0.0779    0.6151
 H    0.7535    0.1210    0.5999
 N    0.7040    0.0081    0.5753
 C    0.4287    0.4466    0.2892
 C    0.4633    0.3908    0.2417
 C    0.4882    0.3182    0.2717
 C    0.4794    0.2995    0.3501
 C    0.4445    0.3554    0.3989
 C    0.4190    0.4291    0.3688
 N    0.4284    0.3535    0.4774
 C    0.3935    0.4231    0.4988
 C    0.3867    0.4708    0.4345
 H    0.4092    0.5026    0.2666
 H    0.4713    0.4030    0.1799
 H    0.5150    0.2763    0.2323
 H    0.4987    0.2437    0.3730
 H    0.4399    0.3085    0.5143
 H    0.3755    0.4351    0.5585
 O    0.3554    0.5462    0.4281
 S    0.3194    0.5894    0.5024
 O    0.2932    0.6642    0.4729
 O    0.3808    0.5946    0.5626
 O    0.2563    0.5398    0.5340
 K    0.3112    0.5264    0.6583
 C    0.6666    0.3103    0.5344
 C    0.6973    0.2737    0.4690
 C    0.6928    0.3083    0.3944
 C    0.6576    0.3804    0.3831
 C    0.6263    0.4181    0.4487
 C    0.6305    0.3835    0.5246
 N    0.5886    0.4886    0.4555
 C    0.5686    0.5004    0.5328
 C    0.5930    0.4378    0.5769
 H    0.6697    0.2842    0.5922
 H    0.7254    0.2171    0.4752
 H    0.7177    0.2774    0.3448
 H    0.6544    0.4068    0.3255
 H    0.5770    0.5264    0.4112
 H    0.5380    0.5525    0.5524
 O    0.5855    0.4242    0.6573
 S    0.5444    0.4867    0.7127
 O    0.5482    0.4524    0.7899
 O    0.4643    0.4996    0.6837
 O    0.5870    0.5613    0.7050
 K    0.4790    0.6338    0.6635
 C    0.0333    0.9004    0.7964
 C    0.0280    0.9558    0.7376
 C    0.0789    1.0206    0.7350
 C    0.1365    1.0316    0.7909
 C    0.1425    0.9759    0.8507
 C    0.0911    0.9101    0.8539
 N    0.1928    0.9713    0.9131
 C    0.1755    0.9051    0.9560
 C    0.1140    0.8662    0.9220
 H   -0.0057    0.8503    0.7990
 H   -0.0163    0.9495    0.6925
 H    0.0726    1.0626    0.6878
 H    0.1755    1.0814    0.7887
 H    0.2358    1.0101    0.9261
 H    0.2077    0.8894    1.0085
 O    0.0767    0.7969    0.9449
 S    0.1050    0.7500    1.0202
 O    0.0535    0.6831    1.0242
 O    0.0997    0.8029    1.0880
 O    0.1881    0.7301    1.0095
 K    0.2317    0.7943    0.1217
 C    0.0916    0.1839   -0.0308
 C    0.0613    0.2189   -0.0972
 C   -0.0012    0.1850   -0.1388
 C   -0.0351    0.1153   -0.1152
 C   -0.0050    0.0792   -0.0481
 C    0.0583    0.1131   -0.0055
 N   -0.0262    0.0111   -0.0114
 C    0.0212    0.0001    0.0531
 C    0.0735    0.0609    0.0588
 H    0.1397    0.2094    0.0018
 H    0.0861    0.2736   -0.1178
 H   -0.0231    0.2145   -0.1906
 H   -0.0832    0.0894   -0.1475
 H   -0.0696   -0.0257   -0.0284
 H    0.0153   -0.0502    0.0913
 O    0.1322    0.0745    0.1142
 S    0.1458    0.0154    0.1850
 O    0.2099    0.0490    0.2287
 O    0.1625   -0.0624    0.1518
 O    0.0721    0.0093    0.2291
 K    0.0584    0.8745    0.2134


